Circuit: * E:\GitHub\MCMOD-Industria\Versandordner\NGspice\Generator-Test.asc

WARNING: Less than two connections to node N002.  This node is used by R1-R.
Direct Newton iteration for .op point succeeded.

Date: Fri Mar 31 00:54:39 2023
Total elapsed time: 0.013 seconds.

tnom = 27
temp = 27
method = trap
totiter = 7
traniter = 0
tranpoints = 0
accept = 0
rejected = 0
matrix size = 10
fillins = 2
solver = Normal
Matrix Compiler1: 418 bytes object code size
Matrix Compiler2: 666 bytes object code size
