Circuit: * E:\GitHub\MCMOD-Industria\Versandordner\NGspice\Generator-Test.asc

Direct Newton iteration for .op point succeeded.

Date: Sun Aug 14 20:44:00 2022
Total elapsed time: 0.008 seconds.

tnom = 27
temp = 27
method = trap
totiter = 5
traniter = 0
tranpoints = 0
accept = 0
rejected = 0
matrix size = 13
fillins = 3
solver = Normal
Matrix Compiler1: 604 bytes object code size
Matrix Compiler2: 919 bytes object code size
