Circuit: * C:\Users\marvi\Desktop\Draft1.asc

Direct Newton iteration for .op point succeeded.

Date: Fri Aug 12 21:55:49 2022
Total elapsed time: 0.067 seconds.

tnom = 27
temp = 27
method = modified trap
totiter = 2087
traniter = 2082
tranpoints = 1042
accept = 1042
rejected = 0
matrix size = 3
fillins = 1
solver = Normal
Matrix Compiler1:       6 opcodes  0.0/[0.0]/0.0
Matrix Compiler2: off  [0.0]/0.0/0.0

