Circuit: * C:\Users\marvi\Desktop\Draft3.asc

Direct Newton iteration for .op point succeeded.
Semiconductor Device Operating Points:
                        --- Diodes ---
Name:      d3          d2          d1
Model:      d           d           d
Id:     -1.29e-11    1.90e+01    1.00e+00
Vd:     -1.29e+01    9.10e-01    8.34e-01
Req:     1.00e+12    1.36e-03    2.59e-02
CAP:     0.00e+00    0.00e+00    0.00e+00



Date: Fri Aug 12 22:12:45 2022
Total elapsed time: 0.026 seconds.

tnom = 27
temp = 27
method = trap
totiter = 29
traniter = 0
tranpoints = 0
accept = 0
rejected = 0
matrix size = 4
fillins = 1
solver = Normal
Matrix Compiler1: 154 bytes object code size
Matrix Compiler2: 262 bytes object code size
